[TITLE]
Saanich Cecelia smoke test

[OPTIONS]
;;Option             Value
FLOW_UNITS           CMS
INFILTRATION         GREEN_AMPT
FLOW_ROUTING         DYNWAVE
LINK_OFFSETS         DEPTH
MIN_SLOPE            0
ALLOW_PONDING        NO
SKIP_STEADY_STATE    NO
START_DATE           04/02/1984
START_TIME           00:00:00
REPORT_START_DATE    04/02/1984
REPORT_START_TIME    00:00:00
END_DATE             09/30/1984
END_TIME             23:00:00
SWEEP_START          01/01
SWEEP_END            12/31
DRY_DAYS             0
REPORT_STEP          01:00:00
WET_STEP             00:15:00
DRY_STEP             01:00:00
ROUTING_STEP         00:01:00

[RAINGAGES]
;;Name             Format     Interval   SCF      Source
RG1                VOLUME     24:00      1        TIMESERIES TS_RG1

[SUBCATCHMENTS]
;;Name             Rain Gage          Outlet             Area     %Imperv  Width    %Slope   CurbLen  SnowPack
S1                 RG1                OF1                3.103511 55       54.640887 1        0        

[SUBAREAS]
;;Subcatchment      N-Imperv  N-Perv    S-Imperv S-Perv    PctZero  RouteTo  PctRouted
S1                 0.015     0.25      0.05      0.1       25       OUTLET   100

[INFILTRATION]
;;Subcatchment      Suction   Ksat      IMDmax
S1                 110       5         0.25

[JUNCTIONS]
;;Name             Elevation      MaxDepth       InitDepth      SurDepth       Aponded
J_471972p576_5366121p534 97.679         2.5            0              0              0
J_471987p924_5366124p014 97.629         2.5            0              0              0
J_472053p848_5366135p737 97.637         2.5            0              0              0
J_472104p748_5366218p296 98             2.5            0              0              0
J_472111p079_5366145p229 97.758         2.5            0              0              0
J_472114p774_5366129p995 97.707         2.5            0              0              0
J_472117p989_5366146p033 97.76          2.5            0              0              0
J_472119p727_5366126p397 97.695         2.5            0              0              0
J_472137p702_5366080p170 97.45          2.5            0              0              0
J_472227p158_5366092p559 97.492         2.5            0              0              0
J_472233p281_5366093p714 97.537         2.5            0              0              0
J_472233p563_5366093p760 97.587         2.5            0              0              0

[OUTFALLS]
;;Name             Elevation      Type           Stage Data      Gated          Route To
OF1                97.3           FREE                           NO             

[CONDUITS]
;;Name             From Node         To Node           Length   Roughness InOffset OutOffset InitFlow  MaxFlow
P000               J_472137p702_5366080p170 OF1               60.170438 0.013     0        0         0         
P001               J_472227p158_5366092p559 J_472137p702_5366080p170 90.310534 0.013     0        0         0         
P002               J_472233p563_5366093p760 J_472233p281_5366093p714 1        0.013     0        0         0         
P003               J_472119p727_5366126p397 J_472137p702_5366080p170 49.598633 0.013     0        0         0         
P004               J_472114p774_5366129p995 J_472119p727_5366126p397 6.121421 0.013     0        0         0         
P005               J_472111p079_5366145p229 J_472114p774_5366129p995 15.675467 0.013     0        0         0         
P006               J_472117p989_5366146p033 J_472111p079_5366145p229 6.956617 0.013     0        0         0         
P007               J_472104p748_5366218p296 J_472117p989_5366146p033 73.465653 0.013     0        0         0         
P008               J_471972p576_5366121p534 J_471987p924_5366124p014 15.547332 0.013     0        0         0         
P009               J_471987p924_5366124p014 J_472053p848_5366135p737 66.958232 0.013     0        0         0         
P010               J_472053p848_5366135p737 J_472111p079_5366145p229 58.01251 0.013     0        0         0         

[XSECTIONS]
;;Link             Shape          Geom1    Geom2    Geom3    Geom4    Barrels
P000               CIRCULAR       0.2      0        0        0        1
P001               CIRCULAR       0.375    0        0        0        1
P002               CIRCULAR       1.65     0        0        0        1
P003               CIRCULAR       0.25     0        0        0        1
P004               CIRCULAR       0.2      0        0        0        1
P005               CIRCULAR       0.2      0        0        0        1
P006               CIRCULAR       0.2      0        0        0        1
P007               CIRCULAR       0.2      0        0        0        1
P008               CIRCULAR       0.2      0        0        0        1
P009               CIRCULAR       0.2      0        0        0        1
P010               CIRCULAR       0.25     0        0        0        1

[COORDINATES]
;;Node             X-Coord        Y-Coord
J_471972p576_5366121p534 471972.576     5366121.534
J_471987p924_5366124p014 471987.924225  5366124.014225
J_472053p848_5366135p737 472053.848263  5366135.737112
J_472104p748_5366218p296 472104.748269  5366218.295512
J_472111p079_5366145p229 472111.079     5366145.2289
J_472114p774_5366129p995 472114.774325  5366129.995225
J_472117p989_5366146p033 472117.989     5366146.0329
J_472119p727_5366126p397 472119.726612  5366126.397081
J_472137p702_5366080p170 472137.701575  5366080.170194
J_472227p158_5366092p559 472227.158381  5366092.558594
J_472233p281_5366093p714 472233.281169  5366093.7135
J_472233p563_5366093p760 472233.563173  5366093.76001
OF1                472078.882325  5366067.490387

[TIMESERIES]
;;Name             Date         Time       Value
TS_RG1             04/02/1984 00:00 0.041667
TS_RG1             04/03/1984 00:00 0
TS_RG1             04/04/1984 00:00 0
TS_RG1             04/05/1984 00:00 0.041667
TS_RG1             04/06/1984 00:00 0.141667
TS_RG1             04/07/1984 00:00 0.041667
TS_RG1             04/08/1984 00:00 0
TS_RG1             04/09/1984 00:00 0.241667
TS_RG1             04/10/1984 00:00 0.175
TS_RG1             04/11/1984 00:00 0.333333
TS_RG1             04/12/1984 00:00 0.158333
TS_RG1             04/13/1984 00:00 0.191667
TS_RG1             04/14/1984 00:00 0
TS_RG1             04/15/1984 00:00 0
TS_RG1             04/16/1984 00:00 0
TS_RG1             04/17/1984 00:00 0
TS_RG1             04/18/1984 00:00 0
TS_RG1             04/19/1984 00:00 0.033333
TS_RG1             04/20/1984 00:00 0.066667
TS_RG1             04/21/1984 00:00 0.083333
TS_RG1             04/22/1984 00:00 0.375
TS_RG1             04/23/1984 00:00 0
TS_RG1             04/24/1984 00:00 0
TS_RG1             04/25/1984 00:00 0
TS_RG1             04/26/1984 00:00 0
TS_RG1             04/27/1984 00:00 0
TS_RG1             04/28/1984 00:00 0
TS_RG1             04/29/1984 00:00 0.2
TS_RG1             04/30/1984 00:00 0.225
TS_RG1             05/01/1984 00:00 0.35
TS_RG1             05/02/1984 00:00 0
TS_RG1             05/03/1984 00:00 0
TS_RG1             05/04/1984 00:00 0
TS_RG1             05/05/1984 00:00 0.316667
TS_RG1             05/06/1984 00:00 0
TS_RG1             05/07/1984 00:00 0.141667
TS_RG1             05/08/1984 00:00 0.058333
TS_RG1             05/09/1984 00:00 0.133333
TS_RG1             05/10/1984 00:00 0.258333
TS_RG1             05/11/1984 00:00 0.058333
TS_RG1             05/12/1984 00:00 0.091667
TS_RG1             05/13/1984 00:00 0.108333
TS_RG1             05/14/1984 00:00 0.066667
TS_RG1             05/15/1984 00:00 0
TS_RG1             05/16/1984 00:00 0.091667
TS_RG1             05/17/1984 00:00 0
TS_RG1             05/18/1984 00:00 0.391667
TS_RG1             05/19/1984 00:00 0.133333
TS_RG1             05/20/1984 00:00 0
TS_RG1             05/21/1984 00:00 0.083333
TS_RG1             05/22/1984 00:00 0.316667
TS_RG1             05/23/1984 00:00 0
TS_RG1             05/24/1984 00:00 0.041667
TS_RG1             05/25/1984 00:00 0.908333
TS_RG1             05/26/1984 00:00 0
TS_RG1             05/27/1984 00:00 0
TS_RG1             05/28/1984 00:00 0
TS_RG1             05/29/1984 00:00 0
TS_RG1             05/30/1984 00:00 0
TS_RG1             05/31/1984 00:00 0.2
TS_RG1             06/01/1984 00:00 0
TS_RG1             06/02/1984 00:00 0
TS_RG1             06/03/1984 00:00 0.475
TS_RG1             06/04/1984 00:00 0.041667
TS_RG1             06/05/1984 00:00 0.175
TS_RG1             06/06/1984 00:00 0
TS_RG1             06/07/1984 00:00 0
TS_RG1             06/08/1984 00:00 0.041667
TS_RG1             06/09/1984 00:00 0
TS_RG1             06/10/1984 00:00 0
TS_RG1             06/11/1984 00:00 0
TS_RG1             06/12/1984 00:00 0
TS_RG1             06/13/1984 00:00 0
TS_RG1             06/14/1984 00:00 0
TS_RG1             06/15/1984 00:00 0
TS_RG1             06/16/1984 00:00 0
TS_RG1             06/17/1984 00:00 0
TS_RG1             06/18/1984 00:00 0
TS_RG1             06/19/1984 00:00 0.3
TS_RG1             06/20/1984 00:00 0.041667
TS_RG1             06/21/1984 00:00 0.233333
TS_RG1             06/22/1984 00:00 0
TS_RG1             06/23/1984 00:00 0
TS_RG1             06/24/1984 00:00 0
TS_RG1             06/25/1984 00:00 0
TS_RG1             06/26/1984 00:00 0.05
TS_RG1             06/27/1984 00:00 0.15
TS_RG1             06/28/1984 00:00 0.408333
TS_RG1             06/29/1984 00:00 0.083333
TS_RG1             06/30/1984 00:00 0
TS_RG1             07/01/1984 00:00 0
TS_RG1             07/02/1984 00:00 0
TS_RG1             07/03/1984 00:00 0
TS_RG1             07/04/1984 00:00 0
TS_RG1             07/05/1984 00:00 0
TS_RG1             07/06/1984 00:00 0
TS_RG1             07/07/1984 00:00 0
TS_RG1             07/08/1984 00:00 0
TS_RG1             07/09/1984 00:00 0
TS_RG1             07/10/1984 00:00 0
TS_RG1             07/11/1984 00:00 0
TS_RG1             07/12/1984 00:00 0
TS_RG1             07/13/1984 00:00 0
TS_RG1             07/14/1984 00:00 0
TS_RG1             07/15/1984 00:00 0
TS_RG1             07/16/1984 00:00 0
TS_RG1             07/17/1984 00:00 0
TS_RG1             07/18/1984 00:00 0
TS_RG1             07/19/1984 00:00 0
TS_RG1             07/20/1984 00:00 0
TS_RG1             07/21/1984 00:00 0
TS_RG1             07/22/1984 00:00 0
TS_RG1             07/23/1984 00:00 0
TS_RG1             07/24/1984 00:00 0
TS_RG1             07/25/1984 00:00 0.091667
TS_RG1             07/26/1984 00:00 0
TS_RG1             07/27/1984 00:00 0
TS_RG1             07/28/1984 00:00 0
TS_RG1             07/29/1984 00:00 0
TS_RG1             07/30/1984 00:00 0
TS_RG1             07/31/1984 00:00 0
TS_RG1             08/01/1984 00:00 0
TS_RG1             08/02/1984 00:00 0
TS_RG1             08/03/1984 00:00 0
TS_RG1             08/04/1984 00:00 0
TS_RG1             08/05/1984 00:00 0.091667
TS_RG1             08/06/1984 00:00 0.066667
TS_RG1             08/07/1984 00:00 0
TS_RG1             08/08/1984 00:00 0
TS_RG1             08/09/1984 00:00 0
TS_RG1             08/10/1984 00:00 0
TS_RG1             08/11/1984 00:00 0
TS_RG1             08/12/1984 00:00 0
TS_RG1             08/13/1984 00:00 0
TS_RG1             08/14/1984 00:00 0
TS_RG1             08/15/1984 00:00 0.025
TS_RG1             08/16/1984 00:00 0
TS_RG1             08/17/1984 00:00 0
TS_RG1             08/18/1984 00:00 0.3
TS_RG1             08/19/1984 00:00 0
TS_RG1             08/20/1984 00:00 0
TS_RG1             08/21/1984 00:00 0
TS_RG1             08/22/1984 00:00 0
TS_RG1             08/23/1984 00:00 0
TS_RG1             08/24/1984 00:00 0
TS_RG1             08/25/1984 00:00 0
TS_RG1             08/26/1984 00:00 0.025
TS_RG1             08/27/1984 00:00 0
TS_RG1             08/28/1984 00:00 0
TS_RG1             08/29/1984 00:00 0
TS_RG1             08/30/1984 00:00 0
TS_RG1             08/31/1984 00:00 0
TS_RG1             09/01/1984 00:00 0
TS_RG1             09/02/1984 00:00 0
TS_RG1             09/03/1984 00:00 0
TS_RG1             09/04/1984 00:00 0.258333
TS_RG1             09/05/1984 00:00 0.608333
TS_RG1             09/06/1984 00:00 0
TS_RG1             09/07/1984 00:00 0.158333
TS_RG1             09/08/1984 00:00 0
TS_RG1             09/09/1984 00:00 0
TS_RG1             09/10/1984 00:00 0
TS_RG1             09/11/1984 00:00 0.666667
TS_RG1             09/12/1984 00:00 0.15
TS_RG1             09/13/1984 00:00 0
TS_RG1             09/14/1984 00:00 0
TS_RG1             09/15/1984 00:00 0
TS_RG1             09/16/1984 00:00 0
TS_RG1             09/17/1984 00:00 0
TS_RG1             09/18/1984 00:00 0
TS_RG1             09/19/1984 00:00 0.041667
TS_RG1             09/20/1984 00:00 0
TS_RG1             09/21/1984 00:00 0.383333
TS_RG1             09/22/1984 00:00 0.116667
TS_RG1             09/23/1984 00:00 0
TS_RG1             09/24/1984 00:00 0
TS_RG1             09/25/1984 00:00 0
TS_RG1             09/26/1984 00:00 0
TS_RG1             09/27/1984 00:00 0
TS_RG1             09/28/1984 00:00 0
TS_RG1             09/29/1984 00:00 0
TS_RG1             09/30/1984 00:00 0

[REPORT]
;;Option             Value
INPUT                NO
CONTROLS             NO
SUBCATCHMENTS        ALL
NODES                ALL
LINKS                ALL
