[TITLE]
Sample mini model for design_review tests

[OPTIONS]
FLOW_UNITS           CMS
INFILTRATION         GREEN_AMPT
FLOW_ROUTING         KINWAVE
START_DATE           01/01/2026
START_TIME           00:00:00
END_DATE             01/01/2026
END_TIME             06:00:00
ROUTING_STEP         00:05:00

[JUNCTIONS]
;;Name             Elevation MaxDepth InitDepth SurDepth Aponded
J1                 10.0      3.0      0         0        0
J2                 8.0       3.0      0         0        0
J3                 5.0       3.0      0         0        0

[OUTFALLS]
;;Name             Elevation Type    Stage Data Gated   Route To
OUT1               0.0       FREE               NO

[CONDUITS]
;;Name  From  To    Length  Roughness InOffset OutOffset InitFlow MaxFlow
C1      J1    J2    100.0   0.013     0        0         0        0
C2      J2    J3    50.0    0.013     0        0         0        0
C3      J3    OUT1  40.0    0.013     0        0         0        0

[XSECTIONS]
;;Link  Shape     Geom1  Geom2 Geom3 Geom4 Barrels
C1      CIRCULAR  0.3    0     0     0     1
C2      CIRCULAR  0.5    0     0     0     1
C3      CIRCULAR  0.6    0     0     0     1
