[TITLE]
;;Project Title/Notes

[OPTIONS]
;;Option             Value
FLOW_UNITS           CMS
INFILTRATION         HORTON
FLOW_ROUTING         DYNWAVE
LINK_OFFSETS         DEPTH
MIN_SLOPE            0
ALLOW_PONDING        NO
SKIP_STEADY_STATE    NO

START_DATE           01/01/1994
START_TIME           00:00:00
REPORT_START_DATE    01/01/1994
REPORT_START_TIME    00:00:00
END_DATE             01/31/1994
END_TIME             00:00:00
SWEEP_START          01/01
SWEEP_END            12/31
DRY_DAYS             0
REPORT_STEP          00:05:00
WET_STEP             00:01:00
DRY_STEP             01:00:00
ROUTING_STEP         0:00:30
RULE_STEP            00:00:00

INERTIAL_DAMPING     PARTIAL
NORMAL_FLOW_LIMITED  BOTH
FORCE_MAIN_EQUATION  H-W
VARIABLE_STEP        0.75
LENGTHENING_STEP     0
MIN_SURFAREA         1.167
MAX_TRIALS           8
HEAD_TOLERANCE       0.0015
SYS_FLOW_TOL         5
LAT_FLOW_TOL         5
MINIMUM_STEP         0.5
THREADS              1

[EVAPORATION]
;;Data Source    Parameters
;;-------------- ----------------
TIMESERIES       EVP_ROME
DRY_ONLY         YES

[TEMPERATURE]
;;Data Element     Values
TIMESERIES         TEMP_ROME
WINDSPEED MONTHLY  0.0 0.0 0.0 0.0 0.0 0.0 0.0 0.0 0.0 0.0 0.0 0.0
SNOWMELT           34 0.5 0.6 0.0 50.0 0.0
ADC IMPERVIOUS     1.0 1.0 1.0 1.0 1.0 1.0 1.0 1.0 1.0 1.0
ADC PERVIOUS       1.0 1.0 1.0 1.0 1.0 1.0 1.0 1.0 1.0 1.0

[RAINGAGES]
;;Name           Format    Interval SCF      Source
;;-------------- --------- ------ ------ ----------
PIOGGIA          CUMULATIVE 0:05     1.0      TIMESERIES MACAO_94_23

[SUBCATCHMENTS]
;;Name           Rain Gage        Outlet           Area     %Imperv  Width    %Slope   CurbLen  SnowPack
;;-------------- ---------------- ---------------- -------- -------- -------- -------- -------- ----------------
B1.0             PIOGGIA          OUT_0            0.3223   0.00     57       10.00    0
B2.1             PIOGGIA          J1               0.1691   0.00     41       10.00    0
B2.2             PIOGGIA          J2               0.0887   0.00     30       10.00    0
B2.3             PIOGGIA          J3               0.0710   0.00     27       10.00    0
B2.4             PIOGGIA          J4               0.0720   0.00     27       10.00    0
B3.0             PIOGGIA          J2               0.0298   74       17       10.00    0
B4.0             PIOGGIA          J4               0.0384   39       20       10.00    0
B5.1             PIOGGIA          J5               0.0540   51       23       10.00    0
B5.2             PIOGGIA          J7               0.0377   100      19       10.00    0
B6.1             PIOGGIA          J6               0.0595   48       24       10.00    0
B6.2             PIOGGIA          J8               0.0317   100      18       10.00    0
B7.1             PIOGGIA          J9               0.0330   100      18       10.00    0
B7.2             PIOGGIA          J10              0.0455   100      21       10.00    0
EDF1             PIOGGIA          J1               0.0981   100      31       10.00    0
EDF2             PIOGGIA          J3               0.1126   100      34       10.00    0
EDF3             PIOGGIA          J9               0.1666   100      41       10.00    0
EDF4             PIOGGIA          J11              0.0756   100      27       10.00    0
B8.1             PIOGGIA          J12              0.0428   100      21       10.00    0
B8.2             PIOGGIA          J13              0.0257   100      16       10.00    0
B9.1             PIOGGIA          J14              0.0036   100      6        10.00    0
B9.2             PIOGGIA          J15              0.0214   100      15       10.00    0
B10.1            PIOGGIA          J14              0.0221   100      15       10.00    0
B10.2            PIOGGIA          J15              0.0533   100      23       10.00    0
B11.1            PIOGGIA          J25              0.0862   100      29       10.00    0
B11.2            PIOGGIA          J25B             0.0421   100      21       10.00    0
B11.3            PIOGGIA          J26              0.0135   100      12       10.00    0
B11.4            PIOGGIA          J28              0.0080   100      9        10.00    0
B11.5            PIOGGIA          J29              0.0108   100      10       10.00    0
B12.1            PIOGGIA          J25              0.0120   100      11       10.00    0
B12.2            PIOGGIA          J25B             0.0107   100      10       10.00    0
B12.3            PIOGGIA          J29              0.0373   100      19       10.00    0
B13.1            PIOGGIA          J21              0.0144   100      12       10.00    0
B13.2            PIOGGIA          J22              0.0370   100      19       10.00    0
B13.3            PIOGGIA          J20              0.0376   100      19       10.00    0
B13.4            PIOGGIA          J19              0.0493   100      22       10.00    0
B13.5            PIOGGIA          J18              0.0158   100      13       10.00    0
B14.0            PIOGGIA          J21              0.0236   100      15       10.00    0
B15.1            PIOGGIA          J16              0.0242   100      16       10.00    0
B15.2            PIOGGIA          J17              0.0319   100      18       10.00    0
B15.3            PIOGGIA          J24              0.0619   100      25       10.00    0

[SUBAREAS]
;;Subcatchment   N-Imperv   N-Perv     S-Imperv   S-Perv     PctZero    RouteTo    PctRouted
;;-------------- ---------- ---------- ---------- ---------- ---------- ---------- ----------
B1.0             0.013      0.150      0.000      0.000      100        OUTLET
B2.1             0.013      0.150      0.000      0.000      100        OUTLET
B2.2             0.013      0.150      0.000      0.000      100        OUTLET
B2.3             0.013      0.150      0.000      0.000      100        OUTLET
B2.4             0.013      0.150      0.000      0.000      100        OUTLET
B3.0             0.013      0.150      0.000      0.000      100        OUTLET
B4.0             0.013      0.150      0.000      0.000      100        OUTLET
B5.1             0.013      0.150      0.000      0.000      100        OUTLET
B5.2             0.013      0.150      0.000      0.000      100        OUTLET
B6.1             0.013      0.150      0.000      0.000      100        OUTLET
B6.2             0.013      0.150      0.000      0.000      100        OUTLET
B7.1             0.013      0.150      0.000      0.000      100        OUTLET
B7.2             0.013      0.150      0.000      0.000      100        OUTLET
EDF1             0.013      0.150      0.000      0.000      100        OUTLET
EDF2             0.013      0.150      0.000      0.000      100        OUTLET
EDF3             0.013      0.150      0.000      0.000      100        OUTLET
EDF4             0.013      0.150      0.000      0.000      100        OUTLET
B8.1             0.013      0.150      0.000      0.000      100        OUTLET
B8.2             0.013      0.150      0.000      0.000      100        OUTLET
B9.1             0.013      0.150      0.000      0.000      100        OUTLET
B9.2             0.013      0.150      0.000      0.000      100        OUTLET
B10.1            0.013      0.150      0.000      0.000      100        OUTLET
B10.2            0.013      0.150      0.000      0.000      100        OUTLET
B11.1            0.013      0.150      0.000      0.000      100        OUTLET
B11.2            0.013      0.150      0.000      0.000      100        OUTLET
B11.3            0.013      0.150      0.000      0.000      100        OUTLET
B11.4            0.013      0.150      0.000      0.000      100        OUTLET
B11.5            0.013      0.150      0.000      0.000      100        OUTLET
B12.1            0.013      0.150      0.000      0.000      100        OUTLET
B12.2            0.013      0.150      0.000      0.000      100        OUTLET
B12.3            0.013      0.150      0.000      0.000      100        OUTLET
B13.1            0.013      0.150      0.000      0.000      100        OUTLET
B13.2            0.013      0.150      0.000      0.000      100        OUTLET
B13.3            0.013      0.150      0.000      0.000      100        OUTLET
B13.4            0.013      0.150      0.000      0.000      100        OUTLET
B13.5            0.013      0.150      0.000      0.000      100        OUTLET
B14.0            0.013      0.150      0.000      0.000      100        OUTLET
B15.1            0.013      0.150      0.000      0.000      100        OUTLET
B15.2            0.013      0.150      0.000      0.000      100        OUTLET
B15.3            0.013      0.150      0.000      0.000      100        OUTLET

[INFILTRATION]
;;Subcatchment   Param1     Param2     Param3     Param4     Param5
;;-------------- ---------- ---------- ---------- ---------- ----------
B1.0             76         6.00       4.14       3          0
B2.1             76         6.00       4.14       3          0
B2.2             76         6.00       4.14       3          0
B2.3             76         6.00       4.14       3          0
B2.4             76         6.00       4.14       3          0
B3.0             76         6.00       4.14       3          0
B4.0             76         6.00       4.14       3          0
B5.1             76         6.00       4.14       3          0
B5.2             76         6.00       4.14       3          0
B6.1             76         6.00       4.14       3          0
B6.2             76         6.00       4.14       3          0
B7.1             76         6.00       4.14       3          0
B7.2             76         6.00       4.14       3          0
EDF1             76         6.00       4.14       3          0
EDF2             76         6.00       4.14       3          0
EDF3             76         6.00       4.14       3          0
EDF4             76         6.00       4.14       3          0
B8.1             76         6.00       4.14       3          0
B8.2             76         6.00       4.14       3          0
B9.1             76         6.00       4.14       3          0
B9.2             76         6.00       4.14       3          0
B10.1            76         6.00       4.14       3          0
B10.2            76         6.00       4.14       3          0
B11.1            76         6.00       4.14       3          0
B11.2            76         6.00       4.14       3          0
B11.3            76         6.00       4.14       3          0
B11.4            76         6.00       4.14       3          0
B11.5            76         6.00       4.14       3          0
B12.1            76         6.00       4.14       3          0
B12.2            76         6.00       4.14       3          0
B12.3            76         6.00       4.14       3          0
B13.1            76         6.00       4.14       3          0
B13.2            76         6.00       4.14       3          0
B13.3            76         6.00       4.14       3          0
B13.4            76         6.00       4.14       3          0
B13.5            76         6.00       4.14       3          0
B14.0            76         6.00       4.14       3          0
B15.1            76         6.00       4.14       3          0
B15.2            76         6.00       4.14       3          0
B15.3            76         6.00       4.14       3          0

[JUNCTIONS]
;;Name           Elevation  MaxDepth   InitDepth  SurDepth   Aponded
;;-------------- ---------- ---------- ---------- ---------- ----------
J1               29.60      0.4        0          0          100
J2               29.49      0.51       0          0          100
J3               29.39      0.61       0          0          100
J4               29.3       0.7        0          0          100
J5               28.80      1.20       0          0          100
J6               28.57      1.43       0          0          100
J7               28.80      1.20       0          0          100
J8               28.53      1.47       0          0          100
J9               28.19      1.81       0          0          100
J10              28.12      1.88       0          0          100
J11              27.9       2.10       0          0          100
J12              28.80      1.20       0          0          100
J13              28.59      1.41       0          0          100
J14              28.55      1.45       0          0          100
J15              28.34      1.66       0          0          100
J16              28.80      1.20       0          0          100
J17              28.59      1.41       0          0          100
J18              28.80      1.20       0          0          100
J19              28.54      1.46       0          0          100
J20              28.40      1.60       0          0          100
J21              28.70      1.30       0          0          100
J22              28.62      1.38       0          0          100
J23              28.16      1.84       0          0          100
J24              27.97      2.03       0          0          100
VPP              27.95      2.05       0          0          100
J25              27.76      2.24       0          0          100
J25B             27.66      2.34       0          0          100
J26              27.56      2.44       0          0          100
J28              28.80      1.20       0          0          100
J29              27.48      2.52       0          0          100
J30              27.44      2.56       0          0          100

[OUTFALLS]
;;Name           Elevation  Type       Stage Data       Gated    Route To
;;-------------- ---------- ---------- ---------------- -------- ----------------
OU2              27.41      FREE                        NO
OUT_0            27.85      FREE                        NO

[CONDUITS]
;;Name           From Node        To Node          Length     Roughness  InOffset   OutOffset  InitFlow   MaxFlow
;;-------------- ---------------- ---------------- ---------- ---------- ---------- ---------- ---------- ----------
C1               J1               J2               27.27      0.02       0.00       0          0          0
C2               J2               J3               26.04      0.02       0.00       0          0          0
C3               J3               J4               22.27      0.02       0.00       0.00       0          0
C4               J4               J11              14.03      0.02       0.00       1.34       0          0
C5               J5               J6               31.95      0.011      0.00       0.10       0          0
C6               J6               J10              35.74      0.011      0.00       0.31       0          0
C7               J7               J8               42.07      0.011      0.00       0.10       0          0
C8               J8               J9               35.93      0.011      0.00       0.20       0          0
C9               J9               J10              16.62      0.011      0.00       0.00       0          0
C10              J10              J11              30.52      0.011      0.00       0.10       0          0
C13              J12              J13              28.39      0.011      0.00       0.10       0          0
C14              J13              J14              8.67       0.011      0.00       0.00       0          0
C15              J14              J15              27.30      0.011      0.00       0.10       0          0
C16              J15              J25              54.85      0.011      0.00       0.36       0          0
C17              J16              J17              26.45      0.011      0.00       0.10       0          0
C18              J17              J24              19.47      0.011      0.00       0.55       0          0
C19              J18              J19              40.88      0.011      0.00       0.10       0          0
C20              J19              J20              33.95      0.011      0.00       0.00       0          0
C21              J20              J23              36.06      0.011      0.00       0.10       0          0
C22              J21              J22              20.55      0.011      0.00       0.00       0          0
C23              J22              J23              9.02       0.011      0.00       0.43       0          0
C24              J23              J24              22.22      0.011      0.00       0.10       0          0
C25              J24              VPP              4.01       0.011      0.00       0.00       0          0
C26              VPP              J25              22.87      0.011      0.00       0.10       0          0
C27              J25              J25B             24.95      0.011      0.00       0.00       0          0
C28              J25B             J26              24.20      0.011      0.00       0.00       0          0
C29              J26              J29              20.80      0.011      0.00       0.00       0          0
C30              J28              J29              19.53      0.011      0.00       1.24       0          0
C31              J29              J30              9.29       0.011      0.00       0.00       0          0
C32              J30              OU2              7.5        0.011      0          0          0          0
C11              J11              OUT_0            10.7       0.011      0          0          0          0

[XSECTIONS]
;;Link           Shape        Geom1            Geom2      Geom3      Geom4      Barrels    Culvert
;;-------------- ------------ ---------------- ---------- ---------- ---------- ---------- ----------
C1               TRAPEZOIDAL  0.4              0.4        1          1          1
C2               TRAPEZOIDAL  0.51             0.4        1          1          1
C3               TRAPEZOIDAL  0.61             0.4        1          1          1
C4               TRAPEZOIDAL  0.7              0.4        1          1          1
C5               CIRCULAR     0.2              0          00         1          1
C6               CIRCULAR     0.3              0          00         1          1
C7               CIRCULAR     0.2              0          00         1          1
C8               CIRCULAR     0.3              0          00         1          1
C9               CIRCULAR     0.5              0          00         1          1
C10              CIRCULAR     0.5              0          00         1          1
C13              CIRCULAR     0.2              0          00         1          1
C14              CIRCULAR     0.3              0          00         1          1
C15              CIRCULAR     0.3              0          00         1          1
C16              CIRCULAR     0.4              0          00         1          1
C17              CIRCULAR     0.2              0          00         1          1
C18              CIRCULAR     0.3              0          00         1          1
C19              CIRCULAR     0.2              0          00         1          1
C20              CIRCULAR     0.3              0          00         1          1
C21              CIRCULAR     0.3              0          00         1          1
C22              CIRCULAR     0.3              0          00         1          1
C23              CIRCULAR     0.3              0          00         1          1
C24              CIRCULAR     0.4              0          00         1          1
C25              CIRCULAR     0.5              0          00         1          1
C26              CIRCULAR     0.5              0          00         1          1
C27              CIRCULAR     0.6              0          00         1          1
C28              CIRCULAR     0.6              0          00         1          1
C29              CIRCULAR     0.6              0          00         1          1
C30              CIRCULAR     0.2              0          00         1          1
C31              CIRCULAR     0.6              0          00         1          1
C32              CIRCULAR     .6               0          0          0          1
C11              CIRCULAR     0.6              0          0          0          1

[TIMESERIES]
;;Name           Date       Time       Value
;;-------------- ---------- ---------- ----------
;Temp Rome NASA 94-23 daily celsius
TEMP_ROME        FILE "EXT_TEM_199401_ROME_NASA_mm_day.dat"
;
;PotentialEvapo Rome Nasa 94-23 daily units
EVP_ROME         FILE "EXT_EVP_199401_ROME_NASA_mm_day.dat"
;
MACAO_94_23      FILE "EXT_RAIN_199401_MACAO_CUM_NEW_5MIN.DAT"

[REPORT]
;;Reporting Options
SUBCATCHMENTS ALL
NODES ALL
LINKS ALL

[TAGS]

[MAP]
DIMENSIONS 4813.336 2049.556 5196.557 2300.485
Units      None

[COORDINATES]
;;Node           X-Coord            Y-Coord
;;-------------- ------------------ ------------------
J1               5053.370           2214.830
J2               5036.380           2193.500
J3               5020.130           2173.150
J4               5006.200           2155.780
J5               5064.150           2178.950
J6               5044.050           2154.110
J7               5083.600           2177.030
J8               5057.300           2144.200
J9               5034.840           2116.160
J10              5021.650           2126.270
J11              4997.430           2144.840
J12              5000.940           2103.140
J13              5023.210           2085.540
J14              5028.580           2092.340
J15              5055.790           2090.040
J16              5072.760           2080.860
J17              5074.870           2107.230
J18              5090.210           2199.720
J19              5122.750           2174.980
J20              5119.570           2141.180
J21              5103.530           2080.060
J22              5116.160           2096.270
J23              5116.190           2105.280
J24              5094.270           2108.920
VPP              5096.960           2111.890
J25              5089.320           2133.450
J25B             5104.570           2153.190
J26              5119.360           2172.350
J28              5086.540           2195.780
J29              5102.570           2184.630
J30              5108.800           2191.520
OU2              5114.300           2196.660
OUT_0            4988.980           2151.480

[VERTICES]
;;Link           X-Coord            Y-Coord
;;-------------- ------------------ ------------------

[Polygons]
;;Subcatchment   X-Coord            Y-Coord
;;-------------- ------------------ ------------------

[SYMBOLS]
;;Gage           X-Coord            Y-Coord
;;-------------- ------------------ ------------------
PIOGGIA          5026.076           2201.001
